ÒTest_1PÓ ... Hydrate dissociation - depressurization
MEMORY         
'HYDRATE-EQUILIBRIUM'
   2     3    4    .FALSE.                     ! NumCom, NumEqu, NumPhases, binary_diffusion
'Cartesian'   15   30    5  .FALSE.  .FALSE.   ! coordinate_system, Max_NumElem, Max_NumConx, ElemNameLength, active_conx_only, boundaries_in_matrix
   2                                           ! MaxNum_SS
   2                                           ! MaxNum_Media
.FALSE.  .FALSE.  .FALSE.  'Saturation'        ! element_by_element_properties, porosity_perm_dependence, scaled_capillary_pressure, Option_tortuosity_CompuMethod
.FALSE.  'Continuous'                          ! coupled_geochemistry, property_update [= 'Continuous', 'Iteration', 'Timestep']
.FALSE.  ' '  'Continuous'  0                  ! coupled_geomechanics, geomechanical_code_name, property_update, num_geomech_param
ROCKS----1----*----2----*----3----*----4----*----5----*----6----*----7----*----8
DIRT1    1     2.6e3       .30  2.96E-13  2.96E-13  2.96E-13       3.1     1000.
     1.e-8              0.50e0                                  5.0e-2     3.0e0
BOUND    0     2.6e3     0.0e0  0.00E-13  0.00E-13  0.00E-13     1.0e2     1000.
 
HYDRATE--1----*----2----*----3----*----4----*----5----*----6----*----7----*----8
     1                       ! HCom%NCom
'CH4'  6.0d0 1.00d00         ! Name, hydration number, mole fraction in composite hydrate
     1                       ! Number of coefficients in thermal conductivity polynomial
  4.5e-1                     ! Coefficients in the thermal conductivity polynomial
     1                       ! Number of coefficients in the specific heat polynomial
  2.1e03                     ! Coefficients in the specific heat polynomial
     0                       ! Number of coefficients in density polynomial
.FALSE.                      ! inhibitor_present,T_MaxOff,C_MaxOff,MW_Inhib,D_Inhib,H_InhSol,DifCo_Inh  
2                            ! F_EqOption
'EQUILIBRIUM'                ! Type of dissociation
START----1----*----2----*----3----*----4----*----5----*----6----*----7----*----8
----*----1 MOP: 123456789*123456789*1234 ---*----5----*----6----*----7----*----8
PARAM----1----*----2----*----3----*----4----*----5----*----6----*----7----*----8
   3 080     002100030040020000400803000   0.00E-5
            8.640E+5    1.0e00   8.64E+6              9.8060
     1.E-5     1.E00                                  1.0e-8            AqH
             6.000e6              5.0e-1                7.20                 
ELEME
A00 1              10.1000E+000.4000E+00          0.5100E-01-.5000E+00-.5000E+00
A00 2              10.1000E+000.4000E+00          0.1510E+00-.5000E+00-.5000E+00
A00 3              10.1000E+000.4000E+00          0.2510E+00-.5000E+00-.5000E+00
A00 4              10.1000E+000.4000E+00          0.3510E+00-.5000E+00-.5000E+00
A00 5              10.1000E+000.4000E+00          0.4510E+00-.5000E+00-.5000E+00
A00 6              10.1000E+000.4000E+00          0.5510E+00-.5000E+00-.5000E+00
A00 7              10.1000E+000.4000E+00          0.6510E+00-.5000E+00-.5000E+00
A00 8              10.1000E+000.4000E+00          0.7510E+00-.5000E+00-.5000E+00
A00 9              10.1000E+000.4000E+00          0.8510E+00-.5000E+00-.5000E+00
A0010              10.1000E+000.4000E+00          0.9510E+00-.5000E+00-.5000E+00
A00 0              10.1000E-020.4000E-02          0.5000E-03-.5000E+00-.5000E+00 I    
     
CONNE
A00 0A00 1                   10.5000E-030.5000E-010.1000E+01
A00 1A00 2                   10.5000E-010.5000E-010.1000E+01
A00 2A00 3                   10.5000E-010.5000E-010.1000E+01
A00 3A00 4                   10.5000E-010.5000E-010.1000E+01
A00 4A00 5                   10.5000E-010.5000E-010.1000E+01
A00 5A00 6                   10.5000E-010.5000E-010.1000E+01
A00 6A00 7                   10.5000E-010.5000E-010.1000E+01
A00 7A00 8                   10.5000E-010.5000E-010.1000E+01
A00 8A00 9                   10.5000E-010.5000E-010.1000E+01
A00 9A0010                   10.5000E-010.5000E-010.1000E+01
A0010A0011                   10.5000E-010.5000E-030.1000E+01

RPCAP----1----*----2----*----3----*----4----*----5----*----6----*----7----*----8
    9           .120       .02        3.
    7        0.45000   1.10e-1   8.0E-05      1.E6     1.0e0

INTERFACES----*----2----*----3----*----4----*----5----*----6----*----7----*----8 
&Interface_General_Info  number_of_interfaces = 1 /
   &Individual_Interface_Specifics  interface_name         = 'Int_1',
                                    number_of_surfaces     = 1,
                                    sign_of_flow_direction = 'DIR'
                                    /
      &Surface_Specifics  definition_mode       = 'NameList',   
                            number_of_connections = 1,             ! Range (min and max) along the first coordinate axis
                            format_to_read_data = '*',
                            /
'A00 0A00 1'


GENER 


INCON----1----*----2----*----3----*----4----*----5----*----6----*----7----*----8
A00 0           0.30000000E+00  Aqu
             2.700e6              00.0e0                1.00                 


ENDCY----1----*----2----*----3----*----4----*----5----*----6----*----7----*----8

MESHMAKER1----*----2----*----3----*----4----*----5----*----6----*----7----*----8
XYZ
       00.
NX       1    1.0e-3
NX      10    1.0e-1
NX       1    1.0e-3
NY       1       1.0
NZ       1       1.0


ENDFI


