BSR Simulation Temperature Initialization
MEMORY
'HYDRATE-EQUILIBRIUM'
    3    4    4  .TRUE.                         ! NumCom, NumEqu, NumPhases, binary_diffusion
'Cartesian'   1525  2535     5 .FALSE. .FALSE.  ! coordinate_system, Max_NumElem, Max_NumConx, ElemNameLength, active_conx_only, boundaries_in_matrix
   2                                            ! MaxNum_SS
   3                                            ! MaxNum_Media
.FALSE. .FALSE. .FALSE. 'Saturation'            ! element_by_element_properties, porosity_perm_dependence, scaled_capillary_pressure, Option_tortuosity_CompuMethod
.FALSE. 'Continuous'                            ! coupled_geochemistry, property_update [= 'Continuous', 'Iteration', 'Timestep']
.FALSE. ' ' 'Continuous'    0                   ! coupled_geomechanics, geomechanical_code_name, property_update, num_geomech_param
ROCKS----1----*----2----*----3----*----4----*----5----*----6----*----7----*----8
WATER    1 2.600E+03 1.000E+00 1.000E-11 1.000E-11 1.000E-11 6.000E-01 1.000E+03          
 0.000E+00           5.000E-01                               5.000E-02 3.000E+00                              
SEDIM    1 2.600E+03 3.000E-01 1.000E-15 0.000E+00 1.000E-15 1.400E+00 1.000E+03          
 0.000E+00           5.000E-01                               5.000E-02 3.000E+00                              
TBOUN    2 2.600E+03 0.000E+00 1.000E-11 1.000E-11 1.000E-11 1.000E+02 1.000E+03          
                                                                                                              
    5                                                                           
    9                                                                           

RPCAP----1----*----2----*----3----*----4----*----5----*----6----*----7----*----8
    9      1.100E-01 2.000E-02 4.000E+00 2.000E+00                              
    7      7.000E-01 1.000E-01 4.500E-07 1.000E+09 1.000E+00                    


HYDRATE
    1
'CH4'  6.0E+00  1.00E+00
    1
 4.5E-01
    1
 2.1E+03
    0
.TRUE.  2.0E+00  1.335E-02  5.8448E+01  2.6E+03  6.6479E+04  4.1293E+01  3.3607E-02 -1.3927E-05
    0
'EQUILIBRIUM'
START----1----*----2----*----3----*----4----*----5----*----6----*----7----*----8
----*----1 MOP: 123456789*123456789*1234 ---*----5----*----6----*----7----*----8
PARAM----1----*----2----*----3----*----4----*----5----*----6----*----7----*----8----*----9----*---10
   2-999     250100030020020000400803000   0.00E-5                              
 0.000E+00 2.367E+12 3.156E+11 1.578E+11              9.8060                    
 1.000E-04     1.E00                                  1.0e-8            Aqu      1.000E-04 1.000E-04 1.000E-04
         1.04571E+07         0.00000E+00         3.50000E-02         1.00000E-01                                        


DIFFUSION-----*----2----*----3----*----4----*----5----*----6----*----7----*----8 
&Diffusion_Key_Parameters gas_diffusivity_equation_exponent = 1.8d0
                          P_at_RefDiffusivity = 1.0d5, ! in Pa
                          Tk_at_RefDiffusivity = 273.15d0, ! in K
                          Option_gas_diffusivity_CompuMethod = 'Real_Gas_EOS',
                          full_multiphase_diffusion = .TRUE.
                          /
&Component_Diffusivities_in_Phases
        phase = 'Aqueous', phase_number = 2,
        component(1) = 'CH4', component_number(1) = 1,
        component_diffusivity(1) = 1.0d-10, ! (m2/s) ! Diffusivity of component 1 in phase 2
        component(2) = 'H2O', component_number(2) = 2,
        component_diffusivity(2) = 1.0d-10, ! (m2/s) ! Diffusivity of component 2 in phase 2
        component(3) = 'NaCl', component_number(3) = 3,
        component_diffusivity(3) = 1.0d-10 ! (m2/s) ! Diffusivity of component 3 in phase 2
        /
&Component_Diffusivities_in_Phases
        phase = 'Gas', phase_number = 1,
        component(1) = 'CH4', component_number(1) = 1,
        component_diffusivity(1) = 1.0d-05, ! (m2/s) ! Diffusivity of component 1 in phase 1
        component(2) = 'H2O', component_number(2) = 2,
        component_diffusivity(2) = 1.0d-05, ! (m2/s) ! Diffusivity of component 2 in phase 1
        component(3) = 'NaCl', component_number(3) = 3,
        component_diffusivity(3) = 0.0d-00 ! (m2/s) ! Diffusivity of component 3 in phase 1
        /

ELEME
A0000          TBOUN0.4096E+040.2048E+04          0.1600E+020.3200E+02-.1000E+01 I
A0001          TBOUN0.8192E+040.4096E+04          0.6400E+020.3200E+02-.1000E+01 I
A0002          TBOUN0.4096E+040.2048E+04          0.1120E+030.3200E+02-.1000E+01 I
A0100          WATER0.2048E+060.0000E+00          0.1600E+020.3200E+02-.5200E+02 I
A0101          WATER0.4096E+060.0000E+00          0.6400E+020.3200E+02-.5200E+02 I
A0102          WATER0.2048E+060.0000E+00          0.1120E+030.3200E+02-.5200E+02 I
A0200          WATER0.2048E+060.0000E+00          0.1600E+020.3200E+02-.1520E+03 I
A0201          WATER0.4096E+060.0000E+00          0.6400E+020.3200E+02-.1520E+03 I
A0202          WATER0.2048E+060.0000E+00          0.1120E+030.3200E+02-.1520E+03 I
A0300          WATER0.2048E+060.0000E+00          0.1600E+020.3200E+02-.2520E+03 I
A0301          WATER0.4096E+060.0000E+00          0.6400E+020.3200E+02-.2520E+03 I
A0302          WATER0.2048E+060.0000E+00          0.1120E+030.3200E+02-.2520E+03 I
A0400          WATER0.2048E+060.0000E+00          0.1600E+020.3200E+02-.3520E+03 I
A0401          WATER0.4096E+060.0000E+00          0.6400E+020.3200E+02-.3520E+03 I
A0402          WATER0.2048E+060.0000E+00          0.1120E+030.3200E+02-.3520E+03 I
A0500          WATER0.2048E+060.0000E+00          0.1600E+020.3200E+02-.4520E+03 I
A0501          WATER0.4096E+060.0000E+00          0.6400E+020.3200E+02-.4520E+03 I
A0502          WATER0.2048E+060.0000E+00          0.1120E+030.3200E+02-.4520E+03 I
A0600          WATER0.2048E+060.0000E+00          0.1600E+020.3200E+02-.5520E+03 I
A0601          WATER0.4096E+060.0000E+00          0.6400E+020.3200E+02-.5520E+03 I
A0602          WATER0.2048E+060.0000E+00          0.1120E+030.3200E+02-.5520E+03 I
A0700          WATER0.4096E+040.0000E+00          0.1600E+020.3200E+02-.6030E+03 I
A0701          WATER0.8192E+040.0000E+00          0.6400E+020.3200E+02-.6030E+03 I
A0702          WATER0.4096E+040.0000E+00          0.1120E+030.3200E+02-.6030E+03 I
A0800          WATER0.4096E+040.0000E+00          0.1600E+020.3200E+02-.6050E+03 I
A0801          WATER0.8192E+040.0000E+00          0.6400E+020.3200E+02-.6050E+03 I
A0802          WATER0.4096E+040.0000E+00          0.1120E+030.3200E+02-.6050E+03 I
A0900          WATER0.4096E+040.0000E+00          0.1600E+020.3200E+02-.6070E+03 I
A0901          WATER0.8192E+040.0000E+00          0.6400E+020.3200E+02-.6070E+03 I
A0902          WATER0.4096E+040.0000E+00          0.1120E+030.3200E+02-.6070E+03 I
A0A00          WATER0.4096E+040.0000E+00          0.1600E+020.3200E+02-.6090E+03 I
A0A01          WATER0.8192E+040.0000E+00          0.6400E+020.3200E+02-.6090E+03 I
A0A02          WATER0.4096E+040.0000E+00          0.1120E+030.3200E+02-.6090E+03 I
A0B00          WATER0.4096E+040.0000E+00          0.1600E+020.3200E+02-.6110E+03 I
A0B01          WATER0.8192E+040.0000E+00          0.6400E+020.3200E+02-.6110E+03 I
A0B02          WATER0.4096E+040.0000E+00          0.1120E+030.3200E+02-.6110E+03 I
A0C00          WATER0.4096E+040.0000E+00          0.1600E+020.3200E+02-.6130E+03 I
A0C01          WATER0.8192E+040.0000E+00          0.6400E+020.3200E+02-.6130E+03 I
A0C02          WATER0.4096E+040.0000E+00          0.1120E+030.3200E+02-.6130E+03 I
A0D00          WATER0.4096E+040.0000E+00          0.1600E+020.3200E+02-.6150E+03 I
A0D01          WATER0.8192E+040.0000E+00          0.6400E+020.3200E+02-.6150E+03 I
A0D02          WATER0.4096E+040.0000E+00          0.1120E+030.3200E+02-.6150E+03 I
A0E00          WATER0.4096E+040.0000E+00          0.1600E+020.3200E+02-.6170E+03 I
A0E01          WATER0.8192E+040.0000E+00          0.6400E+020.3200E+02-.6170E+03 I
A0E02          WATER0.4096E+040.0000E+00          0.1120E+030.3200E+02-.6170E+03 I
A0F00          WATER0.4096E+040.0000E+00          0.1600E+020.3200E+02-.6190E+03 I
A0F01          WATER0.8192E+040.0000E+00          0.6400E+020.3200E+02-.6190E+03 I
A0F02          WATER0.4096E+040.0000E+00          0.1120E+030.3200E+02-.6190E+03 I
A0G00          WATER0.4096E+040.0000E+00          0.1600E+020.3200E+02-.6210E+03 I
A0G01          WATER0.8192E+040.0000E+00          0.6400E+020.3200E+02-.6210E+03 I
A0G02          WATER0.4096E+040.0000E+00          0.1120E+030.3200E+02-.6210E+03 I
A0H00          WATER0.4096E+040.0000E+00          0.1600E+020.3200E+02-.6230E+03 I
A0H01          WATER0.8192E+040.0000E+00          0.6400E+020.3200E+02-.6230E+03 I
A0H02          WATER0.4096E+040.0000E+00          0.1120E+030.3200E+02-.6230E+03 I
A0I00          WATER0.4096E+040.0000E+00          0.1600E+020.3200E+02-.6250E+03 I
A0I01          WATER0.8192E+040.0000E+00          0.6400E+020.3200E+02-.6250E+03 I
A0I02          WATER0.4096E+040.0000E+00          0.1120E+030.3200E+02-.6250E+03 I
A0J00          WATER0.4096E+040.0000E+00          0.1600E+020.3200E+02-.6270E+03 I
A0J01          WATER0.8192E+040.0000E+00          0.6400E+020.3200E+02-.6270E+03 I
A0J02          WATER0.4096E+040.0000E+00          0.1120E+030.3200E+02-.6270E+03 I
A0K00          WATER0.4096E+040.0000E+00          0.1600E+020.3200E+02-.6290E+03 I
A0K01          WATER0.8192E+040.0000E+00          0.6400E+020.3200E+02-.6290E+03 I
A0K02          WATER0.4096E+040.0000E+00          0.1120E+030.3200E+02-.6290E+03 I
A0L00          WATER0.4096E+040.0000E+00          0.1600E+020.3200E+02-.6310E+03 I
A0L01          WATER0.8192E+040.0000E+00          0.6400E+020.3200E+02-.6310E+03 I
A0L02          WATER0.4096E+040.0000E+00          0.1120E+030.3200E+02-.6310E+03 I
A0M00          WATER0.4096E+040.0000E+00          0.1600E+020.3200E+02-.6330E+03 I
A0M01          WATER0.8192E+040.0000E+00          0.6400E+020.3200E+02-.6330E+03 I
A0M02          WATER0.4096E+040.0000E+00          0.1120E+030.3200E+02-.6330E+03 I
A0N00          WATER0.4096E+040.0000E+00          0.1600E+020.3200E+02-.6350E+03 I
A0N01          WATER0.8192E+040.0000E+00          0.6400E+020.3200E+02-.6350E+03 I
A0N02          WATER0.4096E+040.0000E+00          0.1120E+030.3200E+02-.6350E+03 I
A0O00          WATER0.4096E+040.0000E+00          0.1600E+020.3200E+02-.6370E+03 I
A0O01          WATER0.8192E+040.0000E+00          0.6400E+020.3200E+02-.6370E+03 I
A0O02          WATER0.4096E+040.0000E+00          0.1120E+030.3200E+02-.6370E+03 I
A0P00          WATER0.4096E+040.0000E+00          0.1600E+020.3200E+02-.6390E+03 I
A0P01          WATER0.8192E+040.0000E+00          0.6400E+020.3200E+02-.6390E+03 I
A0P02          WATER0.4096E+040.0000E+00          0.1120E+030.3200E+02-.6390E+03 I
A0Q00          WATER0.4096E+040.0000E+00          0.1600E+020.3200E+02-.6410E+03 I
A0Q01          WATER0.8192E+040.0000E+00          0.6400E+020.3200E+02-.6410E+03 I
A0Q02          WATER0.4096E+040.0000E+00          0.1120E+030.3200E+02-.6410E+03 I
A0R00          WATER0.4096E+040.0000E+00          0.1600E+020.3200E+02-.6430E+03 I
A0R01          WATER0.8192E+040.0000E+00          0.6400E+020.3200E+02-.6430E+03 I
A0R02          WATER0.4096E+040.0000E+00          0.1120E+030.3200E+02-.6430E+03 I
A0S00          WATER0.4096E+040.0000E+00          0.1600E+020.3200E+02-.6450E+03 I
A0S01          WATER0.8192E+040.0000E+00          0.6400E+020.3200E+02-.6450E+03 I
A0S02          WATER0.4096E+040.0000E+00          0.1120E+030.3200E+02-.6450E+03 I
A0T00          WATER0.4096E+040.0000E+00          0.1600E+020.3200E+02-.6470E+03 I
A0T01          WATER0.8192E+040.0000E+00          0.6400E+020.3200E+02-.6470E+03 I
A0T02          WATER0.4096E+040.0000E+00          0.1120E+030.3200E+02-.6470E+03 I
A0U00          WATER0.4096E+040.0000E+00          0.1600E+020.3200E+02-.6490E+03 I
A0U01          WATER0.8192E+040.0000E+00          0.6400E+020.3200E+02-.6490E+03 I
A0U02          WATER0.4096E+040.0000E+00          0.1120E+030.3200E+02-.6490E+03 I
A0V00          WATER0.4096E+040.0000E+00          0.1600E+020.3200E+02-.6510E+03 I
A0V01          WATER0.8192E+040.0000E+00          0.6400E+020.3200E+02-.6510E+03 I
A0V02          WATER0.4096E+040.0000E+00          0.1120E+030.3200E+02-.6510E+03 I
A0W00          WATER0.4096E+040.0000E+00          0.1600E+020.3200E+02-.6530E+03 I
A0W01          WATER0.8192E+040.0000E+00          0.6400E+020.3200E+02-.6530E+03 I
A0W02          WATER0.4096E+040.0000E+00          0.1120E+030.3200E+02-.6530E+03 I
A0X00          WATER0.4096E+040.0000E+00          0.1600E+020.3200E+02-.6550E+03 I
A0X01          WATER0.8192E+040.0000E+00          0.6400E+020.3200E+02-.6550E+03 I
A0X02          WATER0.4096E+040.0000E+00          0.1120E+030.3200E+02-.6550E+03 I
A0Y00          WATER0.4096E+040.0000E+00          0.1600E+020.3200E+02-.6570E+03 I
A0Y01          WATER0.8192E+040.0000E+00          0.6400E+020.3200E+02-.6570E+03 I
A0Y02          WATER0.4096E+040.0000E+00          0.1120E+030.3200E+02-.6570E+03 I
A0Z00          WATER0.4096E+040.0000E+00          0.1600E+020.3200E+02-.6590E+03 I
A0Z01          WATER0.8192E+040.0000E+00          0.6400E+020.3200E+02-.6590E+03 I
A0Z02          WATER0.4096E+040.0000E+00          0.1120E+030.3200E+02-.6590E+03 I
A1000          WATER0.4096E+040.0000E+00          0.1600E+020.3200E+02-.6610E+03 I
A1001          WATER0.8192E+040.0000E+00          0.6400E+020.3200E+02-.6610E+03 I
A1002          WATER0.4096E+040.0000E+00          0.1120E+030.3200E+02-.6610E+03 I
A1100          WATER0.4096E+040.0000E+00          0.1600E+020.3200E+02-.6630E+03 I
A1101          WATER0.8192E+040.0000E+00          0.6400E+020.3200E+02-.6630E+03 I
A1102          WATER0.4096E+040.0000E+00          0.1120E+030.3200E+02-.6630E+03 I
A1200          WATER0.4096E+040.0000E+00          0.1600E+020.3200E+02-.6650E+03 I
A1201          WATER0.8192E+040.0000E+00          0.6400E+020.3200E+02-.6650E+03 I
A1202          WATER0.4096E+040.0000E+00          0.1120E+030.3200E+02-.6650E+03 I
A1300          WATER0.4096E+040.0000E+00          0.1600E+020.3200E+02-.6670E+03 I
A1301          WATER0.8192E+040.0000E+00          0.6400E+020.3200E+02-.6670E+03 I
A1302          WATER0.4096E+040.0000E+00          0.1120E+030.3200E+02-.6670E+03 I
A1400          WATER0.4096E+040.0000E+00          0.1600E+020.3200E+02-.6690E+03 I
A1401          WATER0.8192E+040.0000E+00          0.6400E+020.3200E+02-.6690E+03 I
A1402          WATER0.4096E+040.0000E+00          0.1120E+030.3200E+02-.6690E+03 I
A1500          WATER0.4096E+040.0000E+00          0.1600E+020.3200E+02-.6710E+03 I
A1501          WATER0.8192E+040.0000E+00          0.6400E+020.3200E+02-.6710E+03 I
A1502          WATER0.4096E+040.0000E+00          0.1120E+030.3200E+02-.6710E+03 I
A1600          WATER0.4096E+040.0000E+00          0.1600E+020.3200E+02-.6730E+03 I
A1601          WATER0.8192E+040.0000E+00          0.6400E+020.3200E+02-.6730E+03 I
A1602          WATER0.4096E+040.0000E+00          0.1120E+030.3200E+02-.6730E+03 I
A1700          WATER0.4096E+040.0000E+00          0.1600E+020.3200E+02-.6750E+03 I
A1701          WATER0.8192E+040.0000E+00          0.6400E+020.3200E+02-.6750E+03 I
A1702          WATER0.4096E+040.0000E+00          0.1120E+030.3200E+02-.6750E+03 I
A1800          WATER0.4096E+040.0000E+00          0.1600E+020.3200E+02-.6770E+03 I
A1801          WATER0.8192E+040.0000E+00          0.6400E+020.3200E+02-.6770E+03 I
A1802          WATER0.4096E+040.0000E+00          0.1120E+030.3200E+02-.6770E+03 I
A1900          WATER0.4096E+040.0000E+00          0.1600E+020.3200E+02-.6790E+03 I
A1901          WATER0.8192E+040.0000E+00          0.6400E+020.3200E+02-.6790E+03 I
A1902          WATER0.4096E+040.0000E+00          0.1120E+030.3200E+02-.6790E+03 I
A1A00          WATER0.4096E+040.0000E+00          0.1600E+020.3200E+02-.6810E+03 I
A1A01          WATER0.8192E+040.0000E+00          0.6400E+020.3200E+02-.6810E+03 I
A1A02          WATER0.4096E+040.0000E+00          0.1120E+030.3200E+02-.6810E+03 I
A1B00          WATER0.4096E+040.0000E+00          0.1600E+020.3200E+02-.6830E+03 I
A1B01          WATER0.8192E+040.0000E+00          0.6400E+020.3200E+02-.6830E+03 I
A1B02          WATER0.4096E+040.0000E+00          0.1120E+030.3200E+02-.6830E+03 I
A1C00          WATER0.4096E+040.0000E+00          0.1600E+020.3200E+02-.6850E+03 I
A1C01          WATER0.8192E+040.0000E+00          0.6400E+020.3200E+02-.6850E+03 I
A1C02          WATER0.4096E+040.0000E+00          0.1120E+030.3200E+02-.6850E+03 I
A1D00          WATER0.4096E+040.0000E+00          0.1600E+020.3200E+02-.6870E+03 I
A1D01          WATER0.8192E+040.0000E+00          0.6400E+020.3200E+02-.6870E+03 I
A1D02          WATER0.4096E+040.0000E+00          0.1120E+030.3200E+02-.6870E+03 I
A1E00          WATER0.4096E+040.0000E+00          0.1600E+020.3200E+02-.6890E+03 I
A1E01          WATER0.8192E+040.0000E+00          0.6400E+020.3200E+02-.6890E+03 I
A1E02          WATER0.4096E+040.0000E+00          0.1120E+030.3200E+02-.6890E+03 I
A1F00          WATER0.4096E+040.0000E+00          0.1600E+020.3200E+02-.6910E+03 I
A1F01          WATER0.8192E+040.0000E+00          0.6400E+020.3200E+02-.6910E+03 I
A1F02          WATER0.4096E+040.0000E+00          0.1120E+030.3200E+02-.6910E+03 I
A1G00          WATER0.4096E+040.0000E+00          0.1600E+020.3200E+02-.6930E+03 I
A1G01          WATER0.8192E+040.0000E+00          0.6400E+020.3200E+02-.6930E+03 I
A1G02          WATER0.4096E+040.0000E+00          0.1120E+030.3200E+02-.6930E+03 I
A1H00          WATER0.4096E+040.0000E+00          0.1600E+020.3200E+02-.6950E+03 I
A1H01          WATER0.8192E+040.0000E+00          0.6400E+020.3200E+02-.6950E+03 I
A1H02          WATER0.4096E+040.0000E+00          0.1120E+030.3200E+02-.6950E+03 I
A1I00          WATER0.4096E+040.0000E+00          0.1600E+020.3200E+02-.6970E+03 I
A1I01          WATER0.8192E+040.0000E+00          0.6400E+020.3200E+02-.6970E+03 I
A1I02          WATER0.4096E+040.0000E+00          0.1120E+030.3200E+02-.6970E+03 I
A1J00          WATER0.4096E+040.0000E+00          0.1600E+020.3200E+02-.6990E+03 I
A1J01          WATER0.8192E+040.0000E+00          0.6400E+020.3200E+02-.6990E+03 I
A1J02          WATER0.4096E+040.0000E+00          0.1120E+030.3200E+02-.6990E+03 I
A1K00          WATER0.4096E+040.0000E+00          0.1600E+020.3200E+02-.7010E+03 I
A1K01          WATER0.8192E+040.0000E+00          0.6400E+020.3200E+02-.7010E+03 I
A1K02          WATER0.4096E+040.0000E+00          0.1120E+030.3200E+02-.7010E+03 I
A1L00          WATER0.4096E+040.0000E+00          0.1600E+020.3200E+02-.7030E+03 I
A1L01          WATER0.8192E+040.0000E+00          0.6400E+020.3200E+02-.7030E+03 I
A1L02          WATER0.4096E+040.0000E+00          0.1120E+030.3200E+02-.7030E+03 I
A1M00          WATER0.4096E+040.0000E+00          0.1600E+020.3200E+02-.7050E+03 I
A1M01          WATER0.8192E+040.0000E+00          0.6400E+020.3200E+02-.7050E+03 I
A1M02          WATER0.4096E+040.0000E+00          0.1120E+030.3200E+02-.7050E+03 I
A1N00          WATER0.4096E+040.0000E+00          0.1600E+020.3200E+02-.7070E+03 I
A1N01          WATER0.8192E+040.0000E+00          0.6400E+020.3200E+02-.7070E+03 I
A1N02          WATER0.4096E+040.0000E+00          0.1120E+030.3200E+02-.7070E+03 I
A1O00          WATER0.4096E+040.0000E+00          0.1600E+020.3200E+02-.7090E+03 I
A1O01          WATER0.8192E+040.0000E+00          0.6400E+020.3200E+02-.7090E+03 I
A1O02          WATER0.4096E+040.0000E+00          0.1120E+030.3200E+02-.7090E+03 I
A1P00          WATER0.4096E+040.0000E+00          0.1600E+020.3200E+02-.7110E+03 I
A1P01          WATER0.8192E+040.0000E+00          0.6400E+020.3200E+02-.7110E+03 I
A1P02          WATER0.4096E+040.0000E+00          0.1120E+030.3200E+02-.7110E+03 I
A1Q00          WATER0.4096E+040.0000E+00          0.1600E+020.3200E+02-.7130E+03 I
A1Q01          WATER0.8192E+040.0000E+00          0.6400E+020.3200E+02-.7130E+03 I
A1Q02          WATER0.4096E+040.0000E+00          0.1120E+030.3200E+02-.7130E+03 I
A1R00          WATER0.4096E+040.0000E+00          0.1600E+020.3200E+02-.7150E+03 I
A1R01          WATER0.8192E+040.0000E+00          0.6400E+020.3200E+02-.7150E+03 I
A1R02          WATER0.4096E+040.0000E+00          0.1120E+030.3200E+02-.7150E+03 I
A1S00          WATER0.4096E+040.0000E+00          0.1600E+020.3200E+02-.7170E+03 I
A1S01          WATER0.8192E+040.0000E+00          0.6400E+020.3200E+02-.7170E+03 I
A1S02          WATER0.4096E+040.0000E+00          0.1120E+030.3200E+02-.7170E+03 I
A1T00          WATER0.4096E+040.0000E+00          0.1600E+020.3200E+02-.7190E+03 I
A1T01          WATER0.8192E+040.0000E+00          0.6400E+020.3200E+02-.7190E+03 I
A1T02          WATER0.4096E+040.0000E+00          0.1120E+030.3200E+02-.7190E+03 I
A1U00          WATER0.4096E+040.0000E+00          0.1600E+020.3200E+02-.7210E+03 I
A1U01          WATER0.8192E+040.0000E+00          0.6400E+020.3200E+02-.7210E+03 I
A1U02          WATER0.4096E+040.0000E+00          0.1120E+030.3200E+02-.7210E+03 I
A1V00          WATER0.4096E+040.0000E+00          0.1600E+020.3200E+02-.7230E+03 I
A1V01          WATER0.8192E+040.0000E+00          0.6400E+020.3200E+02-.7230E+03 I
A1V02          WATER0.4096E+040.0000E+00          0.1120E+030.3200E+02-.7230E+03 I
A1W00          WATER0.4096E+040.0000E+00          0.1600E+020.3200E+02-.7250E+03 I
A1W01          WATER0.8192E+040.0000E+00          0.6400E+020.3200E+02-.7250E+03 I
A1W02          WATER0.4096E+040.0000E+00          0.1120E+030.3200E+02-.7250E+03 I
A1X00          WATER0.4096E+040.0000E+00          0.1600E+020.3200E+02-.7270E+03 I
A1X01          WATER0.8192E+040.0000E+00          0.6400E+020.3200E+02-.7270E+03 I
A1X02          WATER0.4096E+040.0000E+00          0.1120E+030.3200E+02-.7270E+03 I
A1Y00          WATER0.4096E+040.0000E+00          0.1600E+020.3200E+02-.7290E+03 I
A1Y01          WATER0.8192E+040.0000E+00          0.6400E+020.3200E+02-.7290E+03 I
A1Y02          WATER0.4096E+040.0000E+00          0.1120E+030.3200E+02-.7290E+03 I
A1Z00          WATER0.4096E+040.0000E+00          0.1600E+020.3200E+02-.7310E+03 I
A1Z01          WATER0.8192E+040.0000E+00          0.6400E+020.3200E+02-.7310E+03 I
A1Z02          WATER0.4096E+040.0000E+00          0.1120E+030.3200E+02-.7310E+03 I
A2000          WATER0.4096E+040.0000E+00          0.1600E+020.3200E+02-.7330E+03 I
A2001          WATER0.8192E+040.0000E+00          0.6400E+020.3200E+02-.7330E+03 I
A2002          WATER0.4096E+040.0000E+00          0.1120E+030.3200E+02-.7330E+03 I
A2100          WATER0.4096E+040.0000E+00          0.1600E+020.3200E+02-.7350E+03 I
A2101          WATER0.8192E+040.0000E+00          0.6400E+020.3200E+02-.7350E+03 I
A2102          WATER0.4096E+040.0000E+00          0.1120E+030.3200E+02-.7350E+03 I
A2200          WATER0.4096E+040.0000E+00          0.1600E+020.3200E+02-.7370E+03 I
A2201          WATER0.8192E+040.0000E+00          0.6400E+020.3200E+02-.7370E+03 I
A2202          WATER0.4096E+040.0000E+00          0.1120E+030.3200E+02-.7370E+03 I
A2300          WATER0.4096E+040.0000E+00          0.1600E+020.3200E+02-.7390E+03 I
A2301          WATER0.8192E+040.0000E+00          0.6400E+020.3200E+02-.7390E+03 I
A2302          WATER0.4096E+040.0000E+00          0.1120E+030.3200E+02-.7390E+03 I
A2400          WATER0.4096E+040.0000E+00          0.1600E+020.3200E+02-.7410E+03 I
A2401          WATER0.8192E+040.0000E+00          0.6400E+020.3200E+02-.7410E+03 I
A2402          WATER0.4096E+040.0000E+00          0.1120E+030.3200E+02-.7410E+03 I
A2500          WATER0.4096E+040.0000E+00          0.1600E+020.3200E+02-.7430E+03 I
A2501          WATER0.8192E+040.0000E+00          0.6400E+020.3200E+02-.7430E+03 I
A2502          WATER0.4096E+040.0000E+00          0.1120E+030.3200E+02-.7430E+03 I
A2600          WATER0.4096E+040.0000E+00          0.1600E+020.3200E+02-.7450E+03 I
A2601          WATER0.8192E+040.0000E+00          0.6400E+020.3200E+02-.7450E+03 I
A2602          WATER0.4096E+040.0000E+00          0.1120E+030.3200E+02-.7450E+03 I
A2700          WATER0.4096E+040.0000E+00          0.1600E+020.3200E+02-.7470E+03 I
A2701          WATER0.8192E+040.0000E+00          0.6400E+020.3200E+02-.7470E+03 I
A2702          WATER0.4096E+040.0000E+00          0.1120E+030.3200E+02-.7470E+03 I
A2800          WATER0.4096E+040.0000E+00          0.1600E+020.3200E+02-.7490E+03 I
A2801          WATER0.8192E+040.0000E+00          0.6400E+020.3200E+02-.7490E+03 I
A2802          WATER0.4096E+040.0000E+00          0.1120E+030.3200E+02-.7490E+03 I
A2900          WATER0.4096E+040.0000E+00          0.1600E+020.3200E+02-.7510E+03 I
A2901          WATER0.8192E+040.0000E+00          0.6400E+020.3200E+02-.7510E+03 I
A2902          WATER0.4096E+040.0000E+00          0.1120E+030.3200E+02-.7510E+03 I
A2A00          WATER0.4096E+040.0000E+00          0.1600E+020.3200E+02-.7530E+03 I
A2A01          WATER0.8192E+040.0000E+00          0.6400E+020.3200E+02-.7530E+03 I
A2A02          WATER0.4096E+040.0000E+00          0.1120E+030.3200E+02-.7530E+03 I
A2B00          WATER0.4096E+040.0000E+00          0.1600E+020.3200E+02-.7550E+03 I
A2B01          WATER0.8192E+040.0000E+00          0.6400E+020.3200E+02-.7550E+03 I
A2B02          WATER0.4096E+040.0000E+00          0.1120E+030.3200E+02-.7550E+03 I
A2C00          WATER0.4096E+040.0000E+00          0.1600E+020.3200E+02-.7570E+03 I
A2C01          WATER0.8192E+040.0000E+00          0.6400E+020.3200E+02-.7570E+03 I
A2C02          WATER0.4096E+040.0000E+00          0.1120E+030.3200E+02-.7570E+03 I
A2D00          WATER0.4096E+040.0000E+00          0.1600E+020.3200E+02-.7590E+03 I
A2D01          WATER0.8192E+040.0000E+00          0.6400E+020.3200E+02-.7590E+03 I
A2D02          WATER0.4096E+040.0000E+00          0.1120E+030.3200E+02-.7590E+03 I
A2E00          WATER0.4096E+040.0000E+00          0.1600E+020.3200E+02-.7610E+03 I
A2E01          WATER0.8192E+040.0000E+00          0.6400E+020.3200E+02-.7610E+03 I
A2E02          WATER0.4096E+040.0000E+00          0.1120E+030.3200E+02-.7610E+03 I
A2F00          WATER0.4096E+040.0000E+00          0.1600E+020.3200E+02-.7630E+03 I
A2F01          WATER0.8192E+040.0000E+00          0.6400E+020.3200E+02-.7630E+03 I
A2F02          WATER0.4096E+040.0000E+00          0.1120E+030.3200E+02-.7630E+03 I
A2G00          WATER0.4096E+040.0000E+00          0.1600E+020.3200E+02-.7650E+03 I
A2G01          WATER0.8192E+040.0000E+00          0.6400E+020.3200E+02-.7650E+03 I
A2G02          WATER0.4096E+040.0000E+00          0.1120E+030.3200E+02-.7650E+03 I
A2H00          WATER0.4096E+040.0000E+00          0.1600E+020.3200E+02-.7670E+03 I
A2H01          WATER0.8192E+040.0000E+00          0.6400E+020.3200E+02-.7670E+03 I
A2H02          WATER0.4096E+040.0000E+00          0.1120E+030.3200E+02-.7670E+03 I
A2I00          WATER0.4096E+040.0000E+00          0.1600E+020.3200E+02-.7690E+03 I
A2I01          WATER0.8192E+040.0000E+00          0.6400E+020.3200E+02-.7690E+03 I
A2I02          WATER0.4096E+040.0000E+00          0.1120E+030.3200E+02-.7690E+03 I
A2J00          WATER0.4096E+040.0000E+00          0.1600E+020.3200E+02-.7710E+03 I
A2J01          WATER0.8192E+040.0000E+00          0.6400E+020.3200E+02-.7710E+03 I
A2J02          WATER0.4096E+040.0000E+00          0.1120E+030.3200E+02-.7710E+03 I
A2K00          WATER0.4096E+040.0000E+00          0.1600E+020.3200E+02-.7730E+03 I
A2K01          WATER0.8192E+040.0000E+00          0.6400E+020.3200E+02-.7730E+03 I
A2K02          WATER0.4096E+040.0000E+00          0.1120E+030.3200E+02-.7730E+03 I
A2L00          WATER0.4096E+040.0000E+00          0.1600E+020.3200E+02-.7750E+03 I
A2L01          WATER0.8192E+040.0000E+00          0.6400E+020.3200E+02-.7750E+03 I
A2L02          WATER0.4096E+040.0000E+00          0.1120E+030.3200E+02-.7750E+03 I
A2M00          WATER0.4096E+040.0000E+00          0.1600E+020.3200E+02-.7770E+03 I
A2M01          WATER0.8192E+040.0000E+00          0.6400E+020.3200E+02-.7770E+03 I
A2M02          WATER0.4096E+040.0000E+00          0.1120E+030.3200E+02-.7770E+03 I
A2N00          WATER0.4096E+040.0000E+00          0.1600E+020.3200E+02-.7790E+03 I
A2N01          WATER0.8192E+040.0000E+00          0.6400E+020.3200E+02-.7790E+03 I
A2N02          WATER0.4096E+040.0000E+00          0.1120E+030.3200E+02-.7790E+03 I
A2O00          WATER0.4096E+040.0000E+00          0.1600E+020.3200E+02-.7810E+03 I
A2O01          WATER0.8192E+040.0000E+00          0.6400E+020.3200E+02-.7810E+03 I
A2O02          WATER0.4096E+040.0000E+00          0.1120E+030.3200E+02-.7810E+03 I
A2P00          WATER0.4096E+040.0000E+00          0.1600E+020.3200E+02-.7830E+03 I
A2P01          WATER0.8192E+040.0000E+00          0.6400E+020.3200E+02-.7830E+03 I
A2P02          WATER0.4096E+040.0000E+00          0.1120E+030.3200E+02-.7830E+03 I
A2Q00          WATER0.4096E+040.0000E+00          0.1600E+020.3200E+02-.7850E+03 I
A2Q01          WATER0.8192E+040.0000E+00          0.6400E+020.3200E+02-.7850E+03 I
A2Q02          WATER0.4096E+040.0000E+00          0.1120E+030.3200E+02-.7850E+03 I
A2R00          WATER0.4096E+040.0000E+00          0.1600E+020.3200E+02-.7870E+03 I
A2R01          WATER0.8192E+040.0000E+00          0.6400E+020.3200E+02-.7870E+03 I
A2R02          WATER0.4096E+040.0000E+00          0.1120E+030.3200E+02-.7870E+03 I
A2S00          WATER0.4096E+040.0000E+00          0.1600E+020.3200E+02-.7890E+03 I
A2S01          WATER0.8192E+040.0000E+00          0.6400E+020.3200E+02-.7890E+03 I
A2S02          WATER0.4096E+040.0000E+00          0.1120E+030.3200E+02-.7890E+03 I
A2T00          WATER0.4096E+040.0000E+00          0.1600E+020.3200E+02-.7910E+03 I
A2T01          WATER0.8192E+040.0000E+00          0.6400E+020.3200E+02-.7910E+03 I
A2T02          WATER0.4096E+040.0000E+00          0.1120E+030.3200E+02-.7910E+03 I
A2U00          WATER0.4096E+040.0000E+00          0.1600E+020.3200E+02-.7930E+03 I
A2U01          WATER0.8192E+040.0000E+00          0.6400E+020.3200E+02-.7930E+03 I
A2U02          WATER0.4096E+040.0000E+00          0.1120E+030.3200E+02-.7930E+03 I