Test_2D: Equilibrium hydrate dissociation in a 2-D areal system
MEMORY         
'HYDRATE-EQUILIBRIUM'
   2     3    4    .FALSE.                     ! NumCom, NumEqu, NumPhases, binary_diffusion
'Cartesian'  2600  5200 5  .FALSE.  .FALSE.    ! coordinate_system, Max_NumElem, Max_NumConx, ElemNameLength, active_conx_only, boundaries_in_matrix
   2                                           ! MaxNum_SS
   2                                           ! MaxNum_Media
.FALSE.  .FALSE.  .FALSE.  'Saturation'        ! element_by_element_properties, porosity_perm_dependence, scaled_capillary_pressure, Option_tortuosity_CompuMethod
.FALSE.  'Continuous'                          ! coupled_geochemistry, property_update [= 'Continuous', 'Iteration', 'Timestep']
.FALSE.  ' '  'Continuous'  0                  ! coupled_geomechanics, geomechanical_code_name, property_update, num_geomech_param
ROCKS----1----*----2----*----3----*----4----*----5----*----6----*----7----*----8
DIRT1    1     2.6e3       .30  2.96E-13  2.96E-13  2.96E-13       3.1     1000.
     1.e-8              0.50e0                                  5.0e-2     3.0e0
BOUND    0     2.6e3     0.0e0  0.00E-13  0.00E-13  0.00E-13     1.0e2     1000.
 
HYDRATE--1----*----2----*----3----*----4----*----5----*----6----*----7----*----8
     1                                 ! HCom%NCom
'CH4'  6.0d0 1.00d00                   ! Name, hydration number, mole fraction in composite hydrate
     1                                 ! Number of coefficients in thermal conductivity polynomial
  4.5e-1                               ! Coefficients in the thermal conductivity polynomial
     1                                 ! Number of coefficients in the specific heat polynomial
  2.1e03                               ! Coefficients in the specific heat polynomial
     1                                 ! Number of coefficients in density polynomial
  9.2e02                               ! Coefficients in the density polynomial
.FALSE.                                ! inhibitor_present,T_MaxOff,C_MaxOff,MW_Inhib,D_Inhib,H_InhSol,DifCo_Inh  
2                                      ! F_EqOption
'EQUILIBRIUM'                          ! Type of dissociation
START----1----*----2----*----3----*----4----*----5----*----6----*----7----*----8
----*----1 MOP: 123456789*123456789*1234 ---*----5----*----6----*----7----*----8
PARAM----1----*----2----*----3----*----4----*----5----*----6----*----7----*----8
   30050     050100030020220000400803111   0.00E-5
            8.640E+5     1.0e1   8.64E+5              9.8060
     1.E-5     1.E00                                  1.0e-8            AGH
             1.00e-1              3.0e-1               12.50                 
ELEME
A00 0              10.1000E+020.2000E+01          0.5000E+000.5000E+00-.5000E+01
A00 1              10.1000E+020.2000E+01          0.5000E+000.1500E+01-.5000E+01
A00 2              10.1000E+020.2000E+01          0.5000E+000.2500E+01-.5000E+01
A00 3              10.1000E+020.2000E+01          0.5000E+000.3500E+01-.5000E+01
A00 4              10.1000E+020.2000E+01          0.5000E+000.4500E+01-.5000E+01
A00 5              10.1000E+020.2000E+01          0.5000E+000.5500E+01-.5000E+01
A00 6              10.1000E+020.2000E+01          0.5000E+000.6500E+01-.5000E+01
A00 7              10.1000E+020.2000E+01          0.5000E+000.7500E+01-.5000E+01
A00 8              10.1000E+020.2000E+01          0.5000E+000.8500E+01-.5000E+01
A00 9              10.1000E+020.2000E+01          0.5000E+000.9500E+01-.5000E+01
A0010              10.1000E+020.2000E+01          0.5000E+000.1050E+02-.5000E+01
A0011              10.1000E+020.2000E+01          0.5000E+000.1150E+02-.5000E+01
A0012              10.1000E+020.2000E+01          0.5000E+000.1250E+02-.5000E+01
A0013              10.1000E+020.2000E+01          0.5000E+000.1350E+02-.5000E+01
A0014              10.1000E+020.2000E+01          0.5000E+000.1450E+02-.5000E+01
A0015              10.1000E+020.2000E+01          0.5000E+000.1550E+02-.5000E+01
A0016              10.1000E+020.2000E+01          0.5000E+000.1650E+02-.5000E+01
A0017              10.1000E+020.2000E+01          0.5000E+000.1750E+02-.5000E+01
A0018              10.1000E+020.2000E+01          0.5000E+000.1850E+02-.5000E+01
A0019              10.1000E+020.2000E+01          0.5000E+000.1950E+02-.5000E+01
A0020              10.1000E+020.2000E+01          0.5000E+000.2050E+02-.5000E+01
A0021              10.1000E+020.2000E+01          0.5000E+000.2150E+02-.5000E+01
A0022              10.1000E+020.2000E+01          0.5000E+000.2250E+02-.5000E+01
A0023              10.1000E+020.2000E+01          0.5000E+000.2350E+02-.5000E+01
A0024              10.1000E+020.2000E+01          0.5000E+000.2450E+02-.5000E+01
A0025              10.1000E+020.2000E+01          0.5000E+000.2550E+02-.5000E+01
A0026              10.1000E+020.2000E+01          0.5000E+000.2650E+02-.5000E+01
A0027              10.1000E+020.2000E+01          0.5000E+000.2750E+02-.5000E+01
A0028              10.1000E+020.2000E+01          0.5000E+000.2850E+02-.5000E+01
A0029              10.1000E+020.2000E+01          0.5000E+000.2950E+02-.5000E+01
A0030              10.1000E+020.2000E+01          0.5000E+000.3050E+02-.5000E+01
A0031              10.1000E+020.2000E+01          0.5000E+000.3150E+02-.5000E+01
A0032              10.1000E+020.2000E+01          0.5000E+000.3250E+02-.5000E+01
A0033              10.1000E+020.2000E+01          0.5000E+000.3350E+02-.5000E+01
A0034              10.1000E+020.2000E+01          0.5000E+000.3450E+02-.5000E+01
A0035              10.1000E+020.2000E+01          0.5000E+000.3550E+02-.5000E+01
A0036              10.1000E+020.2000E+01          0.5000E+000.3650E+02-.5000E+01
A0037              10.1000E+020.2000E+01          0.5000E+000.3750E+02-.5000E+01
A0038              10.1000E+020.2000E+01          0.5000E+000.3850E+02-.5000E+01
A0039              10.1000E+020.2000E+01          0.5000E+000.3950E+02-.5000E+01
A0040              10.1000E+020.2000E+01          0.5000E+000.4050E+02-.5000E+01
A0041              10.1000E+020.2000E+01          0.5000E+000.4150E+02-.5000E+01
A0042              10.1000E+020.2000E+01          0.5000E+000.4250E+02-.5000E+01
A0043              10.1000E+020.2000E+01          0.5000E+000.4350E+02-.5000E+01
A0044              10.1000E+020.2000E+01          0.5000E+000.4450E+02-.5000E+01
A0045              10.1000E+020.2000E+01          0.5000E+000.4550E+02-.5000E+01
A0046              10.1000E+020.2000E+01          0.5000E+000.4650E+02-.5000E+01
A0047              10.1000E+020.2000E+01          0.5000E+000.4750E+02-.5000E+01
A0048              10.1000E+020.2000E+01          0.5000E+000.4850E+02-.5000E+01
A0049              10.1000E+020.2000E+01          0.5000E+000.4950E+02-.5000E+01
A01 0              10.1000E+020.2000E+01          0.1500E+010.5000E+00-.5000E+01
A01 1              10.1000E+020.2000E+01          0.1500E+010.1500E+01-.5000E+01
A01 2              10.1000E+020.2000E+01          0.1500E+010.2500E+01-.5000E+01
A01 3              10.1000E+020.2000E+01          0.1500E+010.3500E+01-.5000E+01
A01 4              10.1000E+020.2000E+01          0.1500E+010.4500E+01-.5000E+01
A01 5              10.1000E+020.2000E+01          0.1500E+010.5500E+01-.5000E+01
A01 6              10.1000E+020.2000E+01          0.1500E+010.6500E+01-.5000E+01
A01 7              10.1000E+020.2000E+01          0.1500E+010.7500E+01-.5000E+01
A01 8              10.1000E+020.2000E+01          0.1500E+010.8500E+01-.5000E+01
A01 9              10.1000E+020.2000E+01          0.1500E+010.9500E+01-.5000E+01
A0110              10.1000E+020.2000E+01          0.1500E+010.1050E+02-.5000E+01
A0111              10.1000E+020.2000E+01          0.1500E+010.1150E+02-.5000E+01
A0112              10.1000E+020.2000E+01          0.1500E+010.1250E+02-.5000E+01
A0113              10.1000E+020.2000E+01          0.1500E+010.1350E+02-.5000E+01
A0114              10.1000E+020.2000E+01          0.1500E+010.1450E+02-.5000E+01
A0115              10.1000E+020.2000E+01          0.1500E+010.1550E+02-.5000E+01
A0116              10.1000E+020.2000E+01          0.1500E+010.1650E+02-.5000E+01
A0117              10.1000E+020.2000E+01          0.1500E+010.1750E+02-.5000E+01
A0118              10.1000E+020.2000E+01          0.1500E+010.1850E+02-.5000E+01
A0119              10.1000E+020.2000E+01          0.1500E+010.1950E+02-.5000E+01
A0120              10.1000E+020.2000E+01          0.1500E+010.2050E+02-.5000E+01
A0121              10.1000E+020.2000E+01          0.1500E+010.2150E+02-.5000E+01
A0122              10.1000E+020.2000E+01          0.1500E+010.2250E+02-.5000E+01
A0123              10.1000E+020.2000E+01          0.1500E+010.2350E+02-.5000E+01
A0124              10.1000E+020.2000E+01          0.1500E+010.2450E+02-.5000E+01
A0125              10.1000E+020.2000E+01          0.1500E+010.2550E+02-.5000E+01
A0126              10.1000E+020.2000E+01          0.1500E+010.2650E+02-.5000E+01
A0127              10.1000E+020.2000E+01          0.1500E+010.2750E+02-.5000E+01
A0128              10.1000E+020.2000E+01          0.1500E+010.2850E+02-.5000E+01
A0129              10.1000E+020.2000E+01          0.1500E+010.2950E+02-.5000E+01
A0130              10.1000E+020.2000E+01          0.1500E+010.3050E+02-.5000E+01
A0131              10.1000E+020.2000E+01          0.1500E+010.3150E+02-.5000E+01
A0132              10.1000E+020.2000E+01          0.1500E+010.3250E+02-.5000E+01
A0133              10.1000E+020.2000E+01          0.1500E+010.3350E+02-.5000E+01
A0134              10.1000E+020.2000E+01          0.1500E+010.3450E+02-.5000E+01
A0135              10.1000E+020.2000E+01          0.1500E+010.3550E+02-.5000E+01
A0136              10.1000E+020.2000E+01          0.1500E+010.3650E+02-.5000E+01
A0137              10.1000E+020.2000E+01          0.1500E+010.3750E+02-.5000E+01
A0138              10.1000E+020.2000E+01          0.1500E+010.3850E+02-.5000E+01
A0139              10.1000E+020.2000E+01          0.1500E+010.3950E+02-.5000E+01
A0140              10.1000E+020.2000E+01          0.1500E+010.4050E+02-.5000E+01
A0141              10.1000E+020.2000E+01          0.1500E+010.4150E+02-.5000E+01
A0142              10.1000E+020.2000E+01          0.1500E+010.4250E+02-.5000E+01
A0143              10.1000E+020.2000E+01          0.1500E+010.4350E+02-.5000E+01
A0144              10.1000E+020.2000E+01          0.1500E+010.4450E+02-.5000E+01
A0145              10.1000E+020.2000E+01          0.1500E+010.4550E+02-.5000E+01
A0146              10.1000E+020.2000E+01          0.1500E+010.4650E+02-.5000E+01
A0147              10.1000E+020.2000E+01          0.1500E+010.4750E+02-.5000E+01
A0148              10.1000E+020.2000E+01          0.1500E+010.4850E+02-.5000E+01
A0149              10.1000E+020.2000E+01          0.1500E+010.4950E+02-.5000E+01
A02 0              10.1000E+020.2000E+01          0.2500E+010.5000E+00-.5000E+01
A02 1              10.1000E+020.2000E+01          0.2500E+010.1500E+01-.5000E+01
A02 2              10.1000E+020.2000E+01          0.2500E+010.2500E+01-.5000E+01
A02 3              10.1000E+020.2000E+01          0.2500E+010.3500E+01-.5000E+01
A02 4              10.1000E+020.2000E+01          0.2500E+010.4500E+01-.5000E+01
A02 5              10.1000E+020.2000E+01          0.2500E+010.5500E+01-.5000E+01
A02 6              10.1000E+020.2000E+01          0.2500E+010.6500E+01-.5000E+01
A02 7              10.1000E+020.2000E+01          0.2500E+010.7500E+01-.5000E+01
A02 8              10.1000E+020.2000E+01          0.2500E+010.8500E+01-.5000E+01
A02 9              10.1000E+020.2000E+01          0.2500E+010.9500E+01-.5000E+01
A0210              10.1000E+020.2000E+01          0.2500E+010.1050E+02-.5000E+01
A0211              10.1000E+020.2000E+01          0.2500E+010.1150E+02-.5000E+01
A0212              10.1000E+020.2000E+01          0.2500E+010.1250E+02-.5000E+01
A0213              10.1000E+020.2000E+01          0.2500E+010.1350E+02-.5000E+01
A0214              10.1000E+020.2000E+01          0.2500E+010.1450E+02-.5000E+01
A0215              10.1000E+020.2000E+01          0.2500E+010.1550E+02-.5000E+01
A0216              10.1000E+020.2000E+01          0.2500E+010.1650E+02-.5000E+01
A0217              10.1000E+020.2000E+01          0.2500E+010.1750E+02-.5000E+01
A0218              10.1000E+020.2000E+01          0.2500E+010.1850E+02-.5000E+01
A0219              10.1000E+020.2000E+01          0.2500E+010.1950E+02-.5000E+01
A0220              10.1000E+020.2000E+01          0.2500E+010.2050E+02-.5000E+01
A0221              10.1000E+020.2000E+01          0.2500E+010.2150E+02-.5000E+01
A0222              10.1000E+020.2000E+01          0.2500E+010.2250E+02-.5000E+01
A0223              10.1000E+020.2000E+01          0.2500E+010.2350E+02-.5000E+01
A0224              10.1000E+020.2000E+01          0.2500E+010.2450E+02-.5000E+01
A0225              10.1000E+020.2000E+01          0.2500E+010.2550E+02-.5000E+01
A0226              10.1000E+020.2000E+01          0.2500E+010.2650E+02-.5000E+01
A0227              10.1000E+020.2000E+01          0.2500E+010.2750E+02-.5000E+01
A0228              10.1000E+020.2000E+01          0.2500E+010.2850E+02-.5000E+01
A0229              10.1000E+020.2000E+01          0.2500E+010.2950E+02-.5000E+01
A0230              10.1000E+020.2000E+01          0.2500E+010.3050E+02-.5000E+01
A0231              10.1000E+020.2000E+01          0.2500E+010.3150E+02-.5000E+01
A0232              10.1000E+020.2000E+01          0.2500E+010.3250E+02-.5000E+01
A0233              10.1000E+020.2000E+01          0.2500E+010.3350E+02-.5000E+01
A0234              10.1000E+020.2000E+01          0.2500E+010.3450E+02-.5000E+01
A0235              10.1000E+020.2000E+01          0.2500E+010.3550E+02-.5000E+01
A0236              10.1000E+020.2000E+01          0.2500E+010.3650E+02-.5000E+01
A0237              10.1000E+020.2000E+01          0.2500E+010.3750E+02-.5000E+01
A0238              10.1000E+020.2000E+01          0.2500E+010.3850E+02-.5000E+01
A0239              10.1000E+020.2000E+01          0.2500E+010.3950E+02-.5000E+01
A0240              10.1000E+020.2000E+01          0.2500E+010.4050E+02-.5000E+01
A0241              10.1000E+020.2000E+01          0.2500E+010.4150E+02-.5000E+01
A0242              10.1000E+020.2000E+01          0.2500E+010.4250E+02-.5000E+01
A0243              10.1000E+020.2000E+01          0.2500E+010.4350E+02-.5000E+01
A0244              10.1000E+020.2000E+01          0.2500E+010.4450E+02-.5000E+01
A0245              10.1000E+020.2000E+01          0.2500E+010.4550E+02-.5000E+01
A0246              10.1000E+020.2000E+01          0.2500E+010.4650E+02-.5000E+01
A0247              10.1000E+020.2000E+01          0.2500E+010.4750E+02-.5000E+01
A0248              10.1000E+020.2000E+01          0.2500E+010.4850E+02-.5000E+01
A0249              10.1000E+020.2000E+01          0.2500E+010.4950E+02-.5000E+01
A03 0              10.1000E+020.2000E+01          0.3500E+010.5000E+00-.5000E+01
A03 1              10.1000E+020.2000E+01          0.3500E+010.1500E+01-.5000E+01
A03 2              10.1000E+020.2000E+01          0.3500E+010.2500E+01-.5000E+01
A03 3              10.1000E+020.2000E+01          0.3500E+010.3500E+01-.5000E+01
A03 4              10.1000E+020.2000E+01          0.3500E+010.4500E+01-.5000E+01
A03 5              10.1000E+020.2000E+01          0.3500E+010.5500E+01-.5000E+01
A03 6              10.1000E+020.2000E+01          0.3500E+010.6500E+01-.5000E+01
A03 7              10.1000E+020.2000E+01          0.3500E+010.7500E+01-.5000E+01
A03 8              10.1000E+020.2000E+01          0.3500E+010.8500E+01-.5000E+01
A03 9              10.1000E+020.2000E+01          0.3500E+010.9500E+01-.5000E+01
A0310              10.1000E+020.2000E+01          0.3500E+010.1050E+02-.5000E+01
A0311              10.1000E+020.2000E+01          0.3500E+010.1150E+02-.5000E+01
A0312              10.1000E+020.2000E+01          0.3500E+010.1250E+02-.5000E+01
A0313              10.1000E+020.2000E+01          0.3500E+010.1350E+02-.5000E+01
A0314              10.1000E+020.2000E+01          0.3500E+010.1450E+02-.5000E+01
A0315              10.1000E+020.2000E+01          0.3500E+010.1550E+02-.5000E+01
A0316              10.1000E+020.2000E+01          0.3500E+010.1650E+02-.5000E+01
A0317              10.1000E+020.2000E+01          0.3500E+010.1750E+02-.5000E+01
A0318              10.1000E+020.2000E+01          0.3500E+010.1850E+02-.5000E+01
A0319              10.1000E+020.2000E+01          0.3500E+010.1950E+02-.5000E+01
A0320              10.1000E+020.2000E+01          0.3500E+010.2050E+02-.5000E+01
A0321              10.1000E+020.2000E+01          0.3500E+010.2150E+02-.5000E+01
A0322              10.1000E+020.2000E+01          0.3500E+010.2250E+02-.5000E+01
A0323              10.1000E+020.2000E+01          0.3500E+010.2350E+02-.5000E+01
A0324              10.1000E+020.2000E+01          0.3500E+010.2450E+02-.5000E+01
A0325              10.1000E+020.2000E+01          0.3500E+010.2550E+02-.5000E+01
A0326              10.1000E+020.2000E+01          0.3500E+010.2650E+02-.5000E+01
A0327              10.1000E+020.2000E+01          0.3500E+010.2750E+02-.5000E+01
A0328              10.1000E+020.2000E+01          0.3500E+010.2850E+02-.5000E+01
A0329              10.1000E+020.2000E+01          0.3500E+010.2950E+02-.5000E+01
A0330              10.1000E+020.2000E+01          0.3500E+010.3050E+02-.5000E+01
A0331              10.1000E+020.2000E+01          0.3500E+010.3150E+02-.5000E+01
A0332              10.1000E+020.2000E+01          0.3500E+010.3250E+02-.5000E+01
A0333              10.1000E+020.2000E+01          0.3500E+010.3350E+02-.5000E+01
A0334              10.1000E+020.2000E+01          0.3500E+010.3450E+02-.5000E+01
A0335              10.1000E+020.2000E+01          0.3500E+010.3550E+02-.5000E+01
A0336              10.1000E+020.2000E+01          0.3500E+010.3650E+02-.5000E+01
A0337              10.1000E+020.2000E+01          0.3500E+010.3750E+02-.5000E+01
A0338              10.1000E+020.2000E+01          0.3500E+010.3850E+02-.5000E+01
A0339              10.1000E+020.2000E+01          0.3500E+010.3950E+02-.5000E+01
A0340              10.1000E+020.2000E+01          0.3500E+010.4050E+02-.5000E+01
A0341              10.1000E+020.2000E+01          0.3500E+010.4150E+02-.5000E+01
A0342              10.1000E+020.2000E+01          0.3500E+010.4250E+02-.5000E+01
A0343              10.1000E+020.2000E+01          0.3500E+010.4350E+02-.5000E+01
A0344              10.1000E+020.2000E+01          0.3500E+010.4450E+02-.5000E+01
A0345              10.1000E+020.2000E+01          0.3500E+010.4550E+02-.5000E+01
A0346              10.1000E+020.2000E+01          0.3500E+010.4650E+02-.5000E+01
A0347              10.1000E+020.2000E+01          0.3500E+010.4750E+02-.5000E+01
A0348              10.1000E+020.2000E+01          0.3500E+010.4850E+02-.5000E+01
A0349              10.1000E+020.2000E+01          0.3500E+010.4950E+02-.5000E+01
A04 0              10.1000E+020.2000E+01          0.4500E+010.5000E+00-.5000E+01
A04 1              10.1000E+020.2000E+01          0.4500E+010.1500E+01-.5000E+01
A04 2              10.1000E+020.2000E+01          0.4500E+010.2500E+01-.5000E+01
A04 3              10.1000E+020.2000E+01          0.4500E+010.3500E+01-.5000E+01
A04 4              10.1000E+020.2000E+01          0.4500E+010.4500E+01-.5000E+01
A04 5              10.1000E+020.2000E+01          0.4500E+010.5500E+01-.5000E+01
A04 6              10.1000E+020.2000E+01          0.4500E+010.6500E+01-.5000E+01
A04 7              10.1000E+020.2000E+01          0.4500E+010.7500E+01-.5000E+01
A04 8              10.1000E+020.2000E+01          0.4500E+010.8500E+01-.5000E+01
A04 9              10.1000E+020.2000E+01          0.4500E+010.9500E+01-.5000E+01
A0410              10.1000E+020.2000E+01          0.4500E+010.1050E+02-.5000E+01
A0411              10.1000E+020.2000E+01          0.4500E+010.1150E+02-.5000E+01
A0412              10.1000E+020.2000E+01          0.4500E+010.1250E+02-.5000E+01
A0413              10.1000E+020.2000E+01          0.4500E+010.1350E+02-.5000E+01
A0414              10.1000E+020.2000E+01          0.4500E+010.1450E+02-.5000E+01
A0415              10.1000E+020.2000E+01          0.4500E+010.1550E+02-.5000E+01
A0416              10.1000E+020.2000E+01          0.4500E+010.1650E+02-.5000E+01
A0417              10.1000E+020.2000E+01          0.4500E+010.1750E+02-.5000E+01
A0418              10.1000E+020.2000E+01          0.4500E+010.1850E+02-.5000E+01
A0419              10.1000E+020.2000E+01          0.4500E+010.1950E+02-.5000E+01
A0420              10.1000E+020.2000E+01          0.4500E+010.2050E+02-.5000E+01
A0421              10.1000E+020.2000E+01          0.4500E+010.2150E+02-.5000E+01
A0422              10.1000E+020.2000E+01          0.4500E+010.2250E+02-.5000E+01
A0423              10.1000E+020.2000E+01          0.4500E+010.2350E+02-.5000E+01
A0424              10.1000E+020.2000E+01          0.4500E+010.2450E+02-.5000E+01
A0425              10.1000E+020.2000E+01          0.4500E+010.2550E+02-.5000E+01
A0426              10.1000E+020.2000E+01          0.4500E+010.2650E+02-.5000E+01
A0427              10.1000E+020.2000E+01          0.4500E+010.2750E+02-.5000E+01
A0428              10.1000E+020.2000E+01          0.4500E+010.2850E+02-.5000E+01
A0429              10.1000E+020.2000E+01          0.4500E+010.2950E+02-.5000E+01
A0430              10.1000E+020.2000E+01          0.4500E+010.3050E+02-.5000E+01
A0431              10.1000E+020.2000E+01          0.4500E+010.3150E+02-.5000E+01
A0432              10.1000E+020.2000E+01          0.4500E+010.3250E+02-.5000E+01
A0433              10.1000E+020.2000E+01          0.4500E+010.3350E+02-.5000E+01
A0434              10.1000E+020.2000E+01          0.4500E+010.3450E+02-.5000E+01
A0435              10.1000E+020.2000E+01          0.4500E+010.3550E+02-.5000E+01
A0436              10.1000E+020.2000E+01          0.4500E+010.3650E+02-.5000E+01
A0437              10.1000E+020.2000E+01          0.4500E+010.3750E+02-.5000E+01
A0438              10.1000E+020.2000E+01          0.4500E+010.3850E+02-.5000E+01
A0439              10.1000E+020.2000E+01          0.4500E+010.3950E+02-.5000E+01
A0440              10.1000E+020.2000E+01          0.4500E+010.4050E+02-.5000E+01
A0441              10.1000E+020.2000E+01          0.4500E+010.4150E+02-.5000E+01
A0442              10.1000E+020.2000E+01          0.4500E+010.4250E+02-.5000E+01
A0443              10.1000E+020.2000E+01          0.4500E+010.4350E+02-.5000E+01
A0444              10.1000E+020.2000E+01          0.4500E+010.4450E+02-.5000E+01
A0445              10.1000E+020.2000E+01          0.4500E+010.4550E+02-.5000E+01
A0446              10.1000E+020.2000E+01          0.4500E+010.4650E+02-.5000E+01
A0447              10.1000E+020.2000E+01          0.4500E+010.4750E+02-.5000E+01
A0448              10.1000E+020.2000E+01          0.4500E+010.4850E+02-.5000E+01
A0449              10.1000E+020.2000E+01          0.4500E+010.4950E+02-.5000E+01
A05 0              10.1000E+020.2000E+01          0.5500E+010.5000E+00-.5000E+01
A05 1              10.1000E+020.2000E+01          0.5500E+010.1500E+01-.5000E+01
A05 2              10.1000E+020.2000E+01          0.5500E+010.2500E+01-.5000E+01
A05 3              10.1000E+020.2000E+01          0.5500E+010.3500E+01-.5000E+01
A05 4              10.1000E+020.2000E+01          0.5500E+010.4500E+01-.5000E+01
A05 5              10.1000E+020.2000E+01          0.5500E+010.5500E+01-.5000E+01
A05 6              10.1000E+020.2000E+01          0.5500E+010.6500E+01-.5000E+01
A05 7              10.1000E+020.2000E+01          0.5500E+010.7500E+01-.5000E+01
A05 8              10.1000E+020.2000E+01          0.5500E+010.8500E+01-.5000E+01
A05 9              10.1000E+020.2000E+01          0.5500E+010.9500E+01-.5000E+01
A0510              10.1000E+020.2000E+01          0.5500E+010.1050E+02-.5000E+01
A0511              10.1000E+020.2000E+01          0.5500E+010.1150E+02-.5000E+01
A0512              10.1000E+020.2000E+01          0.5500E+010.1250E+02-.5000E+01
A0513              10.1000E+020.2000E+01          0.5500E+010.1350E+02-.5000E+01
A0514              10.1000E+020.2000E+01          0.5500E+010.1450E+02-.5000E+01
A0515              10.1000E+020.2000E+01          0.5500E+010.1550E+02-.5000E+01
A0516              10.1000E+020.2000E+01          0.5500E+010.1650E+02-.5000E+01
A0517              10.1000E+020.2000E+01          0.5500E+010.1750E+02-.5000E+01
A0518              10.1000E+020.2000E+01          0.5500E+010.1850E+02-.5000E+01
A0519              10.1000E+020.2000E+01          0.5500E+010.1950E+02-.5000E+01
A0520              10.1000E+020.2000E+01          0.5500E+010.2050E+02-.5000E+01
A0521              10.1000E+020.2000E+01          0.5500E+010.2150E+02-.5000E+01
A0522              10.1000E+020.2000E+01          0.5500E+010.2250E+02-.5000E+01
A0523              10.1000E+020.2000E+01          0.5500E+010.2350E+02-.5000E+01
A0524              10.1000E+020.2000E+01          0.5500E+010.2450E+02-.5000E+01
A0525              10.1000E+020.2000E+01          0.5500E+010.2550E+02-.5000E+01
A0526              10.1000E+020.2000E+01          0.5500E+010.2650E+02-.5000E+01
A0527              10.1000E+020.2000E+01          0.5500E+010.2750E+02-.5000E+01
A0528              10.1000E+020.2000E+01          0.5500E+010.2850E+02-.5000E+01
A0529              10.1000E+020.2000E+01          0.5500E+010.2950E+02-.5000E+01
A0530              10.1000E+020.2000E+01          0.5500E+010.3050E+02-.5000E+01
A0531              10.1000E+020.2000E+01          0.5500E+010.3150E+02-.5000E+01
A0532              10.1000E+020.2000E+01          0.5500E+010.3250E+02-.5000E+01
A0533              10.1000E+020.2000E+01          0.5500E+010.3350E+02-.5000E+01
A0534              10.1000E+020.2000E+01          0.5500E+010.3450E+02-.5000E+01
A0535              10.1000E+020.2000E+01          0.5500E+010.3550E+02-.5000E+01
A0536              10.1000E+020.2000E+01          0.5500E+010.3650E+02-.5000E+01
A0537              10.1000E+020.2000E+01          0.5500E+010.3750E+02-.5000E+01
A0538              10.1000E+020.2000E+01          0.5500E+010.3850E+02-.5000E+01
A0539              10.1000E+020.2000E+01          0.5500E+010.3950E+02-.5000E+01
A0540              10.1000E+020.2000E+01          0.5500E+010.4050E+02-.5000E+01
A0541              10.1000E+020.2000E+01          0.5500E+010.4150E+02-.5000E+01
A0542              10.1000E+020.2000E+01          0.5500E+010.4250E+02-.5000E+01
A0543              10.1000E+020.2000E+01          0.5500E+010.4350E+02-.5000E+01
A0544              10.1000E+020.2000E+01          0.5500E+010.4450E+02-.5000E+01
A0545              10.1000E+020.2000E+01          0.5500E+010.4550E+02-.5000E+01
A0546              10.1000E+020.2000E+01          0.5500E+010.4650E+02-.5000E+01
A0547              10.1000E+020.2000E+01          0.5500E+010.4750E+02-.5000E+01
A0548              10.1000E+020.2000E+01          0.5500E+010.4850E+02-.5000E+01
A0549              10.1000E+020.2000E+01          0.5500E+010.4950E+02-.5000E+01
A06 0              10.1000E+020.2000E+01          0.6500E+010.5000E+00-.5000E+01
A06 1              10.1000E+020.2000E+01          0.6500E+010.1500E+01-.5000E+01
A06 2              10.1000E+020.2000E+01          0.6500E+010.2500E+01-.5000E+01
A06 3              10.1000E+020.2000E+01          0.6500E+010.3500E+01-.5000E+01
A06 4              10.1000E+020.2000E+01          0.6500E+010.4500E+01-.5000E+01
A06 5              10.1000E+020.2000E+01          0.6500E+010.5500E+01-.5000E+01
A06 6              10.1000E+020.2000E+01          0.6500E+010.6500E+01-.5000E+01
A06 7              10.1000E+020.2000E+01          0.6500E+010.7500E+01-.5000E+01
A06 8              10.1000E+020.2000E+01          0.6500E+010.8500E+01-.5000E+01
A06 9              10.1000E+020.2000E+01          0.6500E+010.9500E+01-.5000E+01
A0610              10.1000E+020.2000E+01          0.6500E+010.1050E+02-.5000E+01
A0611              10.1000E+020.2000E+01          0.6500E+010.1150E+02-.5000E+01
A0612              10.1000E+020.2000E+01          0.6500E+010.1250E+02-.5000E+01
A0613              10.1000E+020.2000E+01          0.6500E+010.1350E+02-.5000E+01
A0614              10.1000E+020.2000E+01          0.6500E+010.1450E+02-.5000E+01
A0615              10.1000E+020.2000E+01          0.6500E+010.1550E+02-.5000E+01
A0616              10.1000E+020.2000E+01          0.6500E+010.1650E+02-.5000E+01
A0617              10.1000E+020.2000E+01          0.6500E+010.1750E+02-.5000E+01
A0618              10.1000E+020.2000E+01          0.6500E+010.1850E+02-.5000E+01
A0619              10.1000E+020.2000E+01          0.6500E+010.1950E+02-.5000E+01
A0620              10.1000E+020.2000E+01          0.6500E+010.2050E+02-.5000E+01
A0621              10.1000E+020.2000E+01          0.6500E+010.2150E+02-.5000E+01
A0622              10.1000E+020.2000E+01          0.6500E+010.2250E+02-.5000E+01
A0623              10.1000E+020.2000E+01          0.6500E+010.2350E+02-.5000E+01
A0624              10.1000E+020.2000E+01          0.6500E+010.2450E+02-.5000E+01
A0625              10.1000E+020.2000E+01          0.6500E+010.2550E+02-.5000E+01
A0626              10.1000E+020.2000E+01          0.6500E+010.2650E+02-.5000E+01
A0627              10.1000E+020.2000E+01          0.6500E+010.2750E+02-.5000E+01
A0628              10.1000E+020.2000E+01          0.6500E+010.2850E+02-.5000E+01
A0629              10.1000E+020.2000E+01          0.6500E+010.2950E+02-.5000E+01
A0630              10.1000E+020.2000E+01          0.6500E+010.3050E+02-.5000E+01
A0631              10.1000E+020.2000E+01          0.6500E+010.3150E+02-.5000E+01
A0632              10.1000E+020.2000E+01          0.6500E+010.3250E+02-.5000E+01
A0633              10.1000E+020.2000E+01          0.6500E+010.3350E+02-.5000E+01
A0634              10.1000E+020.2000E+01          0.6500E+010.3450E+02-.5000E+01
A0635              10.1000E+020.2000E+01          0.6500E+010.3550E+02-.5000E+01